28
mv_ChartonT16.xyz
O	0.00022775252960022745	0.9743216102904216	-0.7218380901608412
C	0.0007388774011876731	-0.0017390803204468397	-0.0024925424609889557
O	0.0018096612132300054	-1.262639892183351	-0.49644411505236813
H	-0.001763639036361928	-1.1715549474475624	-1.4689102709507644
C	-0.0010126521076560258	6.75402637466127e-05	1.5229626578862525
H	0.09881905002249647	-1.0432967723984534	1.8329773548164656
C	1.214542068740741	0.7581992232659355	2.065083457940487
C	2.1667635511558387	0.07121548486982548	2.8265617843598925
C	1.3957078584168459	2.1276323474384378	1.831091716483285
C	3.2775237508886077	0.7355645295632774	3.3506142392768745
H	2.0399357440775687	-0.9930824728593157	3.0119473137986694
C	2.506505647506582	2.790809112078992	2.3507436775055064
H	0.6719127589245226	2.671383633746762	1.2338051750402848
C	3.4502711732537636	2.098810948732963	3.113706031974499
H	4.005487747361434	0.1857365994739016	3.9413720213948453
H	2.6347260464643703	3.8529467588296984	2.1592349345041018
H	4.313441420065709	2.619677509103573	3.519497876774631
C	-1.3284585240353088	0.5179288226901188	2.090736133196562
C	-1.8118272857354483	-0.057922759303816934	3.273530593670382
C	-2.05825102256869	1.5581171931903794	1.5017262241454343
C	-2.991882258161821	0.3965201392167348	3.860659722598622
H	-1.2556139474670516	-0.8672547163354214	3.7409284495273796
C	-3.2418244974468315	2.011245730263709	2.088705038460453
H	-1.7085209954426286	2.0052360227661623	0.5773203607038473
C	-3.712394446966116	1.4354750655290416	3.268778495597939
H	-3.349640705401177	-0.06443664877868738	4.777655095013242
H	-3.797827232989321	2.816844632467492	1.6162882237329004
H	-4.634184579998893	1.7901188982041658	3.7222318257091125
