17
mv_ChartonT9.xyz
O	2.789376851696853e-05	0.96683596832963	-0.723016758577202
C	-7.724131063499878e-05	-0.004601303650729693	0.0013889810148932646
O	1.209238822469405e-05	-1.2683502586474726	-0.5029661723880743
H	1.0180499566634156e-05	-1.1646905987372527	-1.4730675459071736
C	2.7074654326702035e-05	0.0092614233086325	1.5309391351188477
C	-0.0004608895501313864	1.467761545755791	2.0134806718932046
H	-0.0003576616118975588	1.4963199507459621	3.108976754427693
H	0.8818420605547741	2.005023439066498	1.6527944062378908
H	-0.8833579438411	2.004356823561963	1.6529946675040637
C	1.264023098542448	-0.7222051712458177	2.036628291267103
H	1.2826262104892543	-0.7095580380697126	3.1324171551675906
H	1.2824145349842098	-1.7636970410273212	1.7033090145298635
H	2.176425723292271	-0.2306654446271	1.6796707062444145
C	-1.2633769082713902	-0.723177100556696	2.0367728970262684
H	-1.2817737959495117	-0.7105159315487366	3.132660911069269
H	-2.176174287541662	-0.2322897847763052	1.6801147867816741
H	-1.2810854718285185	-1.7646687053416703	1.7034537197514492
