27
mv_ChartonT18.xyz
O	-5.07521233514472e-05	0.9754904322065511	-0.7181285218690703
C	-0.0015290902896800888	0.0002880862304658338	0.0001451995763175895
O	-0.002107802614079594	-1.2653489409505663	-0.4954643751096512
H	0.002232875862323356	-1.1715619673168138	-1.4667000273007071
C	0.0014547691647878531	-0.00041237956682921295	1.5134253639644004
H	-0.8324054397102213	-0.6318714483201592	1.843099470536488
H	0.9107605848480795	-0.5244967118799536	1.840037314432308
C	-0.0678155921193038	1.4071079099461108	2.111967619496107
H	0.7328884408503777	2.01155139202911	1.668938468589006
H	-1.0070745323409918	1.8847077610050569	1.8025566379810614
C	0.052801024530855174	1.4504448292951833	3.645569524557913
C	0.18347855951089045	2.905283790625029	4.13816008318469
C	-1.1207196272788746	0.7539247177403022	4.364036241932938
H	0.9786937643369331	0.9208712044102724	3.928062639873402
C	0.30427950365715667	3.0002609272734952	5.666624481006055
H	-0.7016315321931981	3.4716243577581953	3.809218420297692
H	1.0499607561768105	3.3814607584555816	3.6603113328790062
C	-1.0044063739740288	0.8442822003306675	5.894272482663622
H	-2.0617579248874676	1.2273670715189717	4.042648236428013
H	-1.1857257304975362	-0.2998518762004402	4.0641447505448465
C	-0.8672941898357895	2.297982863624689	6.36844051247939
H	0.35886173306691255	4.052266099482315	5.974664280185565
H	1.2482895439280268	2.533443455156006	5.9851177173449575
H	-1.875076885873548	0.36961230465739703	6.364624116922669
H	-0.12342564301801634	0.2729559065686741	6.222788810629819
H	-0.73679830232602	2.333084882772949	7.4575971043406115
H	-1.7989211564319456	2.8400354975238	6.147479526796666
