17
mv_ChartonT6.xyz
O	0.0008413732981318504	0.9745713186655335	-0.7194445848070082
C	-0.010148144919729245	-0.00018942467885596503	0.00047584393774760536
O	-0.009402311935546612	-1.2646085531552211	-0.4955667865651456
H	0.010849577597621854	-1.1707943569832369	-1.466830565137651
C	0.007859505959522181	-0.0005237532454119287	1.5146437318333472
H	-0.6784691549625014	-0.7796652687327184	1.870667183365863
H	1.0127937421785607	-0.3327297219686222	1.8133260132286968
C	-0.31749175358464804	1.362107306793245	2.1464104705359714
H	0.31969785839703413	2.1085829406941383	1.6549319192492522
C	0.015294119470486183	1.34537955276565	3.6448012723430714
H	-0.588944772265364	0.5986479450142016	4.176641866599254
H	-0.18823493506550534	2.320816370431134	4.100957450315397
H	1.0712551695108865	1.1066631212255085	3.8206989019755255
C	-1.7815130273322808	1.7594053165115042	1.9074652644985433
H	-2.4655255110027756	1.0366875529576078	2.3725350618694065
H	-2.0090119996235285	1.8105341993706627	0.8385011046952315
H	-1.993770440424948	2.7428388013360756	2.3425598881300114
