14
mv_ChartonT5.xyz
O	-0.00018811444478194133	0.9735453623164566	-0.7192951111854721
C	0.00781513700560246	-0.0011843080472864753	9.321765981182284e-05
O	0.00903083158375868	-1.2661495901472963	-0.4983278264066838
H	-0.00990449977951268	-1.170673615656944	-1.4692764818572595
C	-0.00675335436506638	0.002917382137877733	1.5200838410508928
H	0.7485868889030061	-0.7261485948663817	1.8421526505847465
C	0.346527764622904	1.390003602928544	2.062742487954519
H	-0.380550118230119	2.134874548790131	1.7248555893076043
H	0.34910412103556665	1.3776882132847303	3.1581168685046377
H	1.333855948021304	1.7135880583639418	1.7189808140177751
C	-1.3797159567574637	-0.4886438140827644	2.025833722713782
H	-1.6084544344567795	-1.489642252388442	1.648919773211519
H	-1.3842485766214487	-0.522194744010846	3.120541556091314
H	-2.1773493291606707	0.19227491351386367	1.7063809411687216
