21
mv_ChartonP6.xyz
O	1.4562610189579747e-05	0.9766226649559403	-0.7158667735056736
C	-0.00018964463384198187	-0.0008907050841913677	-0.0006208439875912408
O	-0.0001802250579567845	-1.2652613909330488	-0.4956857070887411
H	0.0002066630067023214	-1.1729022617435576	-1.4671971952210143
C	0.0001486440749068631	0.0008869234076649968	1.5126481590643093
H	0.8770708533291179	-0.5638337647026751	1.8541932707800202
H	-0.8686831625563737	-0.5755886135123566	1.8552418646670215
C	-0.008510592666277288	1.4184918174828454	2.1064470491888656
H	-0.8886508671189717	1.9527312512071298	1.7319694734379376
H	0.8631981103078299	1.964464920137972	1.7294852628811093
C	-0.006599897929223766	1.402765496626516	3.6205341576730317
C	1.197467177618116	1.3913447129962866	4.337420796747962
C	-1.2087756459263124	1.3673417067559726	4.339991756172656
C	1.202316419961231	1.3417560171954523	5.732066226990884
H	2.1412085350462364	1.4283659882336792	3.796700670009992
C	-1.209727160920318	1.3177034391171127	5.734543607845813
H	-2.154070376231812	1.3855917104529216	3.80109333325632
C	-0.00267441366900445	1.3033914388603427	6.435659177493005
H	2.1474911212623393	1.338247310285471	6.268886246174391
H	-2.153586489879973	1.295375581089775	6.27340374173191
H	-0.001208448415558084	1.2680530019869671	7.521891664498076
