20
mv_ChartonP3.xyz
O	-9.094619020413863e-05	0.9732503582473151	-2.2377289377554854
C	0.0003352013381607774	0.005709083825833516	-1.5068950026586414
O	6.471174264849333e-05	-1.2611776733669582	-1.999987571336075
H	-0.00014559921363981043	-1.1688231822841793	-2.9715984315811332
C	-0.00016336767696517596	-0.010503355819203308	0.00835727938210562
H	0.8704925593308235	-0.6037986888551616	0.3187288543756268
H	-0.8707162342977618	-0.6015915132104341	0.3191355067567918
C	0.019337177852133486	1.3610219331873834	0.7122364524931335
H	-0.001959730782266106	1.1283937380387157	1.7883317012998972
C	1.3228539726473307	2.1264897934539646	0.43298989372157415
H	1.3998388307757976	2.401540229676632	-0.6231029616432648
H	1.3638608005424404	3.0463602768386906	1.0278065325805845
H	2.2017054978027	1.52354287224088	0.6939096839478851
C	-1.2169536561977228	2.235530460058327	0.41531048516403324
H	-1.0921785068714316	3.1804021471595907	0.9618447448632867
H	-1.2278576692135506	2.4927433692890615	-0.6494008944244496
C	-2.558619883194211	1.6097242956092042	0.814574257468113
H	-2.79287934787783	0.7188773730687399	0.2199035302531891
H	-2.5656637897428167	1.3149918848886653	1.8719987178677169
H	-3.3789176544879855	2.320690578479474	0.6646175936212
