20
mv_ChartonT10.xyz
O	1.1594317624137067e-05	0.9710944867749681	-0.7114260547339993
C	-8.325489721876226e-06	-0.010002168894686858	0.0017240639906774546
O	3.473448874480084e-05	-1.2697328555761898	-0.5032050153648175
H	-2.7835170361504204e-05	-1.168809311165233	-1.4748384360892013
C	-1.016814628555745e-05	0.015905079463949146	1.5210230814586305
H	0.0005558634616274474	-1.020889650019595	1.878657347886449
C	1.2754754707010207	0.7270955854626094	2.0226538812224093
H	1.282627914552834	1.7471768967203434	1.6195560382988203
H	1.2035751455924268	0.816577835745841	3.1142357288790694
C	-1.2765240169094185	0.7254516317602039	2.0224473569384203
H	-1.2048244926009073	0.8151717122448873	3.114110961430095
H	-1.2848715682307257	1.7455208517192609	1.6193476609833624
C	-2.5786206099598394	0.00829639514661118	1.6512962839719145
H	-3.444983446997792	0.5382986166767396	2.0621781888699995
H	-2.712847326303884	-0.04737231910649278	0.5647321612102152
H	-2.596268325382486	-1.0160308153854176	2.0425201379277214
C	2.5785783486093194	0.011659782005333519	1.6514946826046855
H	2.7128514074425945	-0.04360908019387283	0.564901438311882
H	3.444215254539282	0.5426662885336851	2.062485080444534
H	2.5975306923087245	-1.0127000982423588	2.0425325124974387
