11
mv_ChartonT2.xyz
O	1.229802453122382e-05	0.9762085779918731	-0.716208089729222
C	-1.6859461159892028e-05	-0.0006184114178161004	-0.0005375496686133019
O	2.681278137151476e-05	-1.265641612283452	-0.4959332292666443
H	-1.869841061624724e-05	-1.172494903018628	-1.4672652777865445
C	-3.55293412659936e-06	0.001001579330831004	1.513221785712315
H	-0.8732155920892731	-0.5755249493924246	1.8452981569777571
H	0.8731844093118974	-0.5753379528692106	1.8452863972144637
C	-0.00015444469777700247	1.4089987050285502	2.1044914207001386
H	-0.00021652892089525934	1.3637965207158733	3.1983451854598126
H	0.8815572740991162	1.9700369934767785	1.7812835250179457
H	-0.8821427272724297	1.96984978761795	1.7812942942288275
