26
mv_ChartonP4.xyz
O	2.9366279548178988e-06	0.9709161533124455	-2.219959357650367
C	3.7364168142854854e-05	-0.009867593971326194	-1.506396431288054
O	5.8109470724497733e-05	-1.269858112084121	-2.0114397698595896
H	-6.0277024102056436e-05	-1.1685465961944086	-2.983023581341011
C	-3.813324272011408e-05	0.01581137954021844	0.012966476189791853
H	-8.294671764055399e-06	-1.0209127640601898	0.3705115771010763
C	1.2759537576953681	0.7260466439343434	0.5146507728059513
H	1.2907234792812312	1.7439947896435322	0.10423323179253363
H	1.2014694993505106	0.8251511493645185	1.6062217243534245
C	-1.2760462420165692	0.725952758129405	0.5145992390341201
H	-1.201630500421414	0.8250607009453412	1.6061677311928282
H	-1.2908765224191046	1.7440288781839626	0.10424089982576223
C	-2.584335500071448	0.006894434167711294	0.15998806605783722
H	-2.675551575128842	-0.07761916156731002	-0.9313710727168655
H	-2.5506053917885927	-1.0219928231925879	0.5448149380884026
C	2.584264504807168	0.0068963265137789165	0.1601600113668642
H	2.6753484336769784	-0.07787037612428777	-0.9313195642668298
H	2.550494614597338	-1.021922544330419	0.5451753688658685
C	-3.820242841636688	0.7222700681837633	0.7153850459931572
H	-4.740834905546071	0.18978911480126753	0.4516596278933229
H	-3.778726445553532	0.7947234090649833	1.8093253013322754
H	-3.8989729241915985	1.74165834225921	0.31884059605295256
C	3.820057155285268	0.7224464460106941	0.7152588507750046
H	3.7785735439207713	0.7952138990552924	1.809189245162857
H	4.740765090634082	0.19000799940054075	0.45150301983075547
H	3.898727067706382	1.741827121829525	0.3183957728163742
