30
mv_ChartonT15.xyz
O	5.145908404968014e-06	0.9759140903361366	-0.7169086909378621
C	-1.61622377549305e-05	-0.00024078789985437776	-0.00019180593930137602
O	-1.584745807762134e-07	-1.2654670688232965	-0.49570401346250104
H	4.45712422356588e-06	-1.1721683324016663	-1.4670422891218218
C	6.717679707130248e-06	0.0004173293914901399	1.5131244387227787
H	-0.8723752047449185	-0.5778362101572316	1.8468023004788288
H	0.8742337325280698	-0.5753563857234703	1.8464548686148565
C	-0.0018958357391655103	1.406462354050063	2.115941922645865
H	0.8734732035089606	1.956365039902023	1.7488756463160804
H	-0.8765141076930707	1.9554390867131994	1.7455827383951266
C	-0.004717208195603982	1.3905704158599859	3.6494409791040106
H	0.873118980535763	0.8350761631084161	4.012345168820198
H	-0.8840281128834175	0.8355536132081066	4.009312986449933
C	-0.005097328232217823	2.7953932390616174	4.26447641785576
H	0.8730192964560364	3.35343103012739	3.9111996606404835
H	-0.8824394926923984	3.35403552301589	3.9102754367183836
C	-0.00604972975675333	2.780888442322384	5.806584933428801
H	0.8718586806936104	2.222110381854328	6.157774116064133
H	-0.8874890177659559	2.2274705454571433	6.157049843203065
C	-0.002103025469619083	4.168833458870992	6.411477481376909
C	-1.2024970994844637	4.830352550869757	6.703745676689315
C	1.20248204224058	4.8418499468451905	6.658224277839373
C	-1.2021177765558393	6.125550584262984	7.223221768928829
H	-2.148100023156654	4.321953777442635	6.525617807111297
C	1.2092153180962648	6.136984315033587	7.177363874993645
H	2.145456688552704	4.34239239630532	6.444564638175643
C	0.005418965926727161	6.784474936410088	7.461148172890455
H	-2.1450756031415317	6.618250617266223	7.446293404865346
H	2.155265592987754	6.638915921491603	7.364271017222646
H	0.00845373661649294	7.791933463582654	7.868502522559323
