24
mv_ChartonP7.xyz
O	2.3751883300116017e-05	0.9749663353526874	-2.2246430163132604
C	0.012657715512805923	-0.005074704747322967	-1.5099697254434405
O	0.01590523891768683	-1.2652454437895573	-2.0074147194412526
H	-0.01714822283870293	-1.1721753865504212	-2.9787513104906282
C	-0.011438483475089016	0.005984430337422297	0.012926107739352544
H	0.4510587948773812	-0.9276068133970465	0.3519864668774928
C	0.7913737744902274	1.2020760274694138	0.5686680350139386
H	0.3643928628410375	2.1269481152249097	0.16583947051283943
H	0.6411678533033647	1.2275417175237149	1.6545819587990902
C	-1.4627135681498837	0.015051946731000354	0.49169496506887844
C	-1.9097261525649394	-0.94593338696269	1.4061089401371718
C	-2.360880238116668	0.9984674313683177	0.0528226515922503
C	-3.22217543794559	-0.9233305396167317	1.8808700217305083
H	-1.2247198472687089	-1.7175981597613852	1.7499704386012267
C	-3.6733024536223366	1.0202603438591706	0.5248628376064897
H	-2.032110721190347	1.7396704007927735	-0.6702945400554121
C	-4.1082373041540325	0.06104265640034534	1.4416713420713614
H	-3.551311950059323	-1.6771433779163634	2.5913050794298447
H	-4.35800647281331	1.787606041623286	0.17304305955723231
H	-5.130942394804371	0.07932796443319895	1.8086444815080585
C	2.2881737807433367	1.138034726809904	0.24901867541731537
H	2.4657493783443183	1.1721024044003432	-0.8313482717262223
H	2.816113974020712	1.9866657865210713	0.6976744084863888
H	2.7423055685725632	0.21926797713047125	0.6407038665677085
