26
mv_ChartonP4.xyz
O	2.936627954817901e-06	0.9709161533124454	-0.7117332970082628
C	3.7364168142854854e-05	-0.00986759397132625	0.0018296293540499553
O	5.810947072449773e-05	-1.2698581120841212	-0.5032137092174859
H	-6.027702410205642e-05	-1.1685465961944086	-1.4747975206989075
C	-3.813324272011409e-05	0.015811379540218273	1.5211925368318957
H	-8.294671764055409e-06	-1.0209127640601898	1.8787376377431801
C	1.2759537576953681	0.7260466439343433	2.022876833448055
H	1.2907234792812312	1.7439947896435322	1.6124592924346381
H	1.2014694993505106	0.8251511493645182	3.114447784995528
C	-1.2760462420165692	0.7259527581294049	2.022825299676224
H	-1.201630500421414	0.8250607009453409	3.114393791834932
H	-1.2908765224191046	1.7440288781839621	1.6124669604678668
C	-2.584335500071448	0.006894434167711239	1.668214126699941
H	-2.675551575128842	-0.07761916156731014	0.5768549879252385
H	-2.5506053917885927	-1.0219928231925879	2.0530409987305065
C	2.584264504807168	0.00689632651377875	1.6683860720089678
H	2.6753484336769784	-0.0778703761242879	0.5769064963752741
H	2.550494614597338	-1.0219225443304192	2.0534014295079723
C	-3.820242841636688	0.7222700681837629	2.2236111066352606
H	-4.740834905546071	0.18978911480126737	1.9598856885354268
H	-3.778726445553532	0.794723409064983	3.3175513619743793
H	-3.8989729241915985	1.7416583422592096	1.827066656695056
C	3.820057155285268	0.7224464460106937	2.2234849114171085
H	3.7785735439207713	0.795213899055292	3.3174153058049605
H	4.740765090634082	0.19000799940054058	1.9597290804728593
H	3.898727067706382	1.741827121829525	1.8266218334584785
